SUMMARY OF JOB INFORMATION
  STEP      INC     ATT  ITRS     TOT TIME     STEP TIME      INC TIME
     1          1     1     2  0.500000E-01  0.500000E-01  0.500000E-01
     1          2     1     2  0.100000E+00  0.100000E+00  0.500000E-01
     1          3     1     2  0.175000E+00  0.175000E+00  0.750000E-01
     1          4     1     2  0.287500E+00  0.287500E+00  0.112500E+00
     1          5     1     2  0.456250E+00  0.456250E+00  0.168750E+00
     1          6     1     3  0.656250E+00  0.656250E+00  0.200000E+00
     1          7     1     2  0.856250E+00  0.856250E+00  0.200000E+00
     1          8     1     2  0.100000E+01  0.100000E+01  0.143750E+00
