*HEADING
CCS Bistable Half-Beam - 2D Plane Strain
**
*NODE
1, 0.00000000, 0.25000000, 0.0
2, 0.04511278, 0.25002044, 0.0
3, 0.09022556, 0.25008176, 0.0
4, 0.13533835, 0.25018395, 0.0
5, 0.18045113, 0.25032699, 0.0
6, 0.22556391, 0.25051087, 0.0
7, 0.27067669, 0.25073556, 0.0
8, 0.31578947, 0.25100103, 0.0
9, 0.36090226, 0.25130724, 0.0
10, 0.40601504, 0.25165415, 0.0
11, 0.45112782, 0.25204171, 0.0
12, 0.49624060, 0.25246986, 0.0
13, 0.54135338, 0.25293855, 0.0
14, 0.58646617, 0.25344772, 0.0
15, 0.63157895, 0.25399728, 0.0
16, 0.67669173, 0.25458716, 0.0
17, 0.72180451, 0.25521729, 0.0
18, 0.76691729, 0.25588757, 0.0
19, 0.81203008, 0.25659792, 0.0
20, 0.85714286, 0.25734822, 0.0
** ... 2485 like lines cut
*ELEMENT, TYPE=CPE3, ELSET=BEAM
1, 796, 795, 1203
2, 1203, 797, 796
3, 1354, 3, 2
4, 1199, 798, 797
5, 792, 1011, 793
6, 1427, 395, 1350
7, 1461, 1469, 1197
8, 793, 848, 794
9, 1195, 1517, 1460
10, 848, 793, 1011
11, 6, 846, 1010
12, 392, 1351, 393
13, 1428, 1196, 1003
14, 790, 789, 1013
15, 1016, 787, 786
16, 1428, 1195, 1351
17, 1349, 1426, 1194
18, 800, 791, 849
19, 1854, 1521, 1936
20, 1200, 4, 3
** ... 4178 like lines cut
*NSET, NSET=ANCHOR
1, 2, 797, 798, 799, 845, 847, 1199, 1202, 1518
*NSET, NSET=SHUTTLE
398, 399, 400, 401, 1007, 1198, 1352, 1353, 1468, 1520
*MATERIAL, NAME=POLYSI
*ELASTIC
160000.0, 0.2200
*SOLID SECTION, ELSET=BEAM, MATERIAL=POLYSI
0.5000
*STEP, NLGEOM, INC=1000
*STATIC
0.05, 1.0, 1e-8, 0.2
*BOUNDARY
ANCHOR, 1, 2, 0.0
*BOUNDARY
SHUTTLE, 2, 2, -1.22448980
*NODE FILE
U, RF
*NODE PRINT, NSET=SHUTTLE, TOTALS=YES
RF
*END STEP
