*HEADING
CCS Bistable Beam - 2D Plane Strain
**
*NODE
1, 0.00000000, 0.25000000, 0.0
2, 0.06000000, 0.25003173, 0.0
3, 0.12000000, 0.25012692, 0.0
4, 0.18000000, 0.25028555, 0.0
5, 0.24000000, 0.25050757, 0.0
6, 0.30000000, 0.25079294, 0.0
7, 0.36000000, 0.25114157, 0.0
8, 0.42000000, 0.25155339, 0.0
9, 0.48000000, 0.25202829, 0.0
10, 0.54000000, 0.25256616, 0.0
11, 0.60000000, 0.25316686, 0.0
12, 0.66000000, 0.25383024, 0.0
13, 0.72000000, 0.25455615, 0.0
14, 0.78000000, 0.25534440, 0.0
15, 0.84000000, 0.25619479, 0.0
16, 0.90000000, 0.25710712, 0.0
17, 0.96000000, 0.25808117, 0.0
18, 1.02000000, 0.25911669, 0.0
19, 1.08000000, 0.26021342, 0.0
20, 1.14000000, 0.26137111, 0.0
** ... 4013 like lines cut
*ELEMENT, TYPE=CPE3, ELSET=BEAM
1, 798, 998, 1275
2, 1242, 1193, 1091
3, 822, 1280, 1335
4, 851, 797, 796
5, 1139, 800, 799
6, 1205, 374, 373
7, 1095, 1197, 1246
8, 796, 802, 851
9, 850, 7, 1140
10, 795, 794, 849
11, 791, 999, 792
12, 1192, 1088, 934
13, 1092, 933, 341
14, 849, 802, 795
15, 8, 997, 9
16, 1271, 1286, 1327
17, 1271, 1415, 1285
18, 792, 999, 852
19, 1082, 1188, 1239
20, 793, 995, 794
** ... 7099 like lines cut
*NSET, NSET=ANCHOR
1, 800, 801, 847, 992, 1139, 1264, 400, 401, 842, 1127, 1129, 1217, 1269
*NSET, NSET=CENTER
200, 201, 202, 599, 600, 601, 1562, 1809, 1810, 1811, 2087, 2315, 2320, 2321, 2322, 2323
2324, 2802, 2805, 3544, 3546, 3552, 3553, 3554, 3555, 3556, 3557, 3558, 3559, 3560, 3561, 3880
3881, 3882, 3883, 3884, 3886, 3887, 3888, 3889, 4008, 4026
*MATERIAL, NAME=POLYSI
*ELASTIC
160000.0, 0.2200
*SOLID SECTION, ELSET=BEAM, MATERIAL=POLYSI
0.5000
*STEP, NLGEOM, INC=1000
*STATIC
0.05, 1.0, 1e-8, 0.2
*BOUNDARY
ANCHOR, 1, 2, 0.0
*BOUNDARY
CENTER, 2, 2, -0.93061224
*NODE FILE
U, RF
*NODE PRINT, NSET=CENTER, TOTALS=YES
RF
*END STEP
