*HEADING
CCS Bistable Half-Beam - 3D
**
*NODE
1, 0.00000000, 0.25000000, 0.00000000
2, 0.09090909, 0.25008300, 0.00000000
3, 0.18181818, 0.25033196, 0.00000000
4, 0.27272727, 0.25074674, 0.00000000
5, 0.36363636, 0.25132711, 0.00000000
6, 0.45454545, 0.25207272, 0.00000000
7, 0.54545455, 0.25298317, 0.00000000
8, 0.63636364, 0.25405793, 0.00000000
9, 0.72727273, 0.25529640, 0.00000000
10, 0.81818182, 0.25669788, 0.00000000
11, 0.90909091, 0.25826157, 0.00000000
12, 1.00000000, 0.25998658, 0.00000000
13, 1.09090909, 0.26187194, 0.00000000
14, 1.18181818, 0.26391659, 0.00000000
15, 1.27272727, 0.26611936, 0.00000000
16, 1.36363636, 0.26847900, 0.00000000
17, 1.45454545, 0.27099418, 0.00000000
18, 1.54545455, 0.27366348, 0.00000000
19, 1.63636364, 0.27648538, 0.00000000
20, 1.72727273, 0.27945828, 0.00000000
** ... 43485 like lines cut
*ELEMENT, TYPE=C3D10, ELSET=BEAM
1, 4179, 4177, 4200, 17665, 4831, 4830, 4829, 18923, 18925, 18924
2, 17619, 17623, 17665, 4177, 18926, 18927, 18928, 18929, 18930, 18925
3, 4177, 17623, 17665, 4179, 18930, 18927, 18925, 4831, 18931, 18923
4, 17623, 17619, 17665, 17666, 18926, 18928, 18927, 18932, 18934, 18933
5, 17620, 17624, 17666, 17619, 18935, 18936, 18937, 18938, 18939, 18934
6, 17619, 17624, 17666, 17623, 18939, 18936, 18934, 18926, 18940, 18932
7, 17624, 17620, 17666, 11619, 18935, 18937, 18936, 18941, 18943, 18942
8, 11596, 11598, 11619, 17620, 12248, 12250, 12249, 18944, 18945, 18943
9, 17620, 11598, 11619, 17624, 18945, 12250, 18943, 18935, 18946, 18941
10, 4351, 4285, 4352, 17969, 4834, 4833, 4832, 18947, 18949, 18948
11, 17835, 17967, 17969, 4285, 18950, 18951, 18952, 18953, 18954, 18949
12, 4285, 17967, 17969, 4351, 18954, 18951, 18949, 4834, 18955, 18947
13, 17967, 17835, 17969, 17970, 18950, 18952, 18951, 18956, 18958, 18957
14, 17836, 17968, 17970, 17835, 18959, 18960, 18961, 18962, 18963, 18958
15, 17835, 17968, 17970, 17967, 18963, 18960, 18958, 18950, 18964, 18956
16, 17968, 17836, 17970, 11771, 18959, 18961, 18960, 18965, 18967, 18966
17, 11704, 11770, 11771, 17836, 12251, 12253, 12252, 18968, 18969, 18967
18, 17836, 11770, 11771, 17968, 18969, 12253, 18967, 18959, 18970, 18965
19, 3694, 4258, 4260, 17785, 4837, 4836, 4835, 18971, 18973, 18972
20, 17781, 16653, 17785, 4258, 18974, 18975, 18976, 18977, 18978, 18973
** ... 26152 like lines cut
*NSET, NSET=ANCHOR
1, 396, 397, 792, 793, 1189, 1190, 1191, 1192, 1193, 1194, 1195, 1196, 1197, 1203, 3564
3565, 3566, 3567, 3568, 3569, 3570, 3571, 3572, 8992, 8993, 8994, 8995, 8996, 10972, 10973, 10974
10975, 10976, 10977, 10978, 10979, 10980, 10981, 10982, 10983, 10984, 10985, 10986, 10987, 10988, 10989, 10990
10991
*NSET, NSET=SHUTTLE
198, 199, 594, 595, 989, 990, 991, 992, 993, 2374, 2375, 2376, 2377, 2378, 2379, 2380
2381, 2382, 2383, 2384, 2385, 2386, 2387, 2393, 9972, 9973, 9974, 9975, 9976, 9977, 9978, 9979
9980, 9981, 9982, 9983, 9984, 9985, 9986, 9987, 9988, 9989, 9990, 9991, 9992, 9993, 9994, 9995
9996
*MATERIAL, NAME=POLYSI
*ELASTIC
160000.0, 0.2200
*SOLID SECTION, ELSET=BEAM, MATERIAL=POLYSI

*STEP, NLGEOM, INC=1000
*STATIC
0.05, 1.0, 1e-8, 0.2
*BOUNDARY
ANCHOR, 1, 3, 0.0
*BOUNDARY
SHUTTLE, 2, 2, -2.02105263
*NODE FILE
U, RF
*NODE PRINT, NSET=SHUTTLE, TOTALS=YES
RF
*END STEP
